<?xml version="1.0" encoding="UTF-8"?>

<!-- generated on 2025-11-17 10:00:30 by Eclipse SUMO netconvert Version 1.24.0
<netconvertConfiguration xmlns:xsi="http://www.w3.org/2001/XMLSchema-instance" xsi:noNamespaceSchemaLocation="http://sumo.dlr.de/xsd/netconvertConfiguration.xsd">

    <input>
        <node-files value="interactive_scenarios/CHN_TST-2_1_T-23/CHN_TST-2_1_T-1.nod.xml"/>
        <edge-files value="interactive_scenarios/CHN_TST-2_1_T-23/CHN_TST-2_1_T-1.edg.xml"/>
        <connection-files value="interactive_scenarios/CHN_TST-2_1_T-23/CHN_TST-2_1_T-1.con.xml"/>
        <tllogic-files value="interactive_scenarios/CHN_TST-2_1_T-23/CHN_TST-2_1_T-1.tll.xml"/>
        <type-files value="interactive_scenarios/CHN_TST-2_1_T-23/CHN_TST-2_1_T-1.typ.xml"/>
    </input>

    <output>
        <output-file value="interactive_scenarios/CHN_TST-2_1_T-23/CHN_TST-2_1_T-1.net.xml"/>
    </output>

    <processing>
        <geometry.remove.keep-edges.explicit value="true"/>
        <geometry.remove.min-length value="0.0"/>
        <geometry.avoid-overlap value="true"/>
        <offset.disable-normalization value="true"/>
    </processing>

    <tls_building>
        <tls.guess-signals value="true"/>
        <tls.green.time value="50"/>
        <tls.yellow.time value="10"/>
        <tls.red.time value="50"/>
        <tls.allred.time value="50"/>
        <tls.left-green.time value="50"/>
        <tls.crossing-min.time value="50"/>
        <tls.crossing-clearance.time value="50"/>
        <tls.group-signals value="true"/>
    </tls_building>

    <junctions>
        <no-turnarounds value="true"/>
        <junctions.internal-link-detail value="20"/>
    </junctions>

    <random_number>
        <seed value="1234"/>
    </random_number>

</netconvertConfiguration>
-->

<net version="1.20" junctionCornerDetail="5" junctionLinkDetail="20" limitTurnSpeed="5.50" xmlns:xsi="http://www.w3.org/2001/XMLSchema-instance" xsi:noNamespaceSchemaLocation="http://sumo.dlr.de/xsd/net_file.xsd">

    <location netOffset="0.00,0.00" convBoundary="-75.60,-433.53,64.55,-330.57" origBoundary="-75.74,-437.59,64.66,-330.44" projParameter="!"/>

    <type id="highway.residential" priority="3" speed="13.89" disallow="pedestrian tram rail_urban rail rail_electric ship"/>

    <edge id=":11_0" function="internal">
        <lane id=":11_0_0" index="0" disallow="pedestrian tram rail_urban rail rail_electric ship" speed="36.11" length="3.05" width="3.50" shape="-43.70,-421.42 -40.65,-421.24"/>
        <lane id=":11_0_1" index="1" disallow="pedestrian tram rail_urban rail rail_electric ship" speed="36.11" length="3.05" width="3.50" shape="-43.91,-417.93 -40.86,-417.75"/>
        <lane id=":11_0_2" index="2" disallow="pedestrian tram rail_urban rail rail_electric ship" speed="36.11" length="3.05" width="3.50" shape="-44.12,-414.43 -41.08,-414.25"/>
        <lane id=":11_0_3" index="3" disallow="pedestrian tram rail_urban rail rail_electric ship" speed="36.11" length="3.05" width="3.50" shape="-44.33,-410.94 -41.29,-410.76"/>
        <lane id=":11_0_4" index="4" disallow="pedestrian tram rail_urban rail rail_electric ship" speed="36.11" length="3.05" width="3.50" shape="-44.54,-407.44 -41.51,-407.27"/>
    </edge>
    <edge id=":13_0" function="internal">
        <lane id=":13_0_0" index="0" disallow="pedestrian tram rail_urban rail rail_electric ship" speed="36.11" length="3.03" width="3.50" shape="-18.47,-367.80 -18.23,-370.82"/>
        <lane id=":13_0_1" index="1" disallow="pedestrian tram rail_urban rail rail_electric ship" speed="36.11" length="3.03" width="3.50" shape="-14.98,-367.52 -14.74,-370.54"/>
        <lane id=":13_0_2" index="2" disallow="pedestrian tram rail_urban rail rail_electric ship" speed="36.11" length="3.03" width="3.50" shape="-11.49,-367.24 -11.25,-370.25"/>
    </edge>
    <edge id=":14_0" function="internal">
        <lane id=":14_0_0" index="0" disallow="pedestrian tram rail_urban rail rail_electric ship" speed="36.11" length="3.01" width="3.50" shape="-17.35,-381.32 -17.09,-384.32"/>
        <lane id=":14_0_1" index="1" disallow="pedestrian tram rail_urban rail rail_electric ship" speed="36.11" length="3.01" width="3.50" shape="-13.86,-381.03 -13.60,-384.03"/>
        <lane id=":14_0_2" index="2" disallow="pedestrian tram rail_urban rail rail_electric ship" speed="36.11" length="3.01" width="3.50" shape="-10.37,-380.73 -10.12,-383.73"/>
    </edge>
    <edge id=":15_0" function="internal">
        <lane id=":15_0_0" index="0" disallow="pedestrian tram rail_urban rail rail_electric ship" speed="36.11" length="3.07" width="3.50" shape="19.27,-415.59 22.32,-415.52"/>
        <lane id=":15_0_1" index="1" disallow="pedestrian tram rail_urban rail rail_electric ship" speed="36.11" length="3.07" width="3.50" shape="19.20,-412.09 22.26,-412.02"/>
        <lane id=":15_0_2" index="2" disallow="pedestrian tram rail_urban rail rail_electric ship" speed="36.11" length="3.07" width="3.50" shape="19.12,-408.59 22.20,-408.52"/>
        <lane id=":15_0_3" index="3" disallow="pedestrian tram rail_urban rail rail_electric ship" speed="36.11" length="3.07" width="3.50" shape="19.05,-405.10 22.14,-405.02"/>
    </edge>
    <edge id=":17_0" function="internal">
        <lane id=":17_0_0" index="0" disallow="pedestrian tram rail_urban rail rail_electric ship" speed="36.11" length="3.07" width="3.50" shape="47.75,-420.68 44.73,-421.31"/>
        <lane id=":17_0_1" index="1" disallow="pedestrian tram rail_urban rail rail_electric ship" speed="36.11" length="3.07" width="3.50" shape="48.47,-424.11 45.46,-424.73"/>
        <lane id=":17_0_2" index="2" disallow="pedestrian tram rail_urban rail rail_electric ship" speed="36.11" length="3.07" width="3.50" shape="49.19,-427.54 46.19,-428.15"/>
        <lane id=":17_0_3" index="3" disallow="pedestrian tram rail_urban rail rail_electric ship" speed="36.11" length="3.07" width="3.50" shape="49.90,-430.96 46.92,-431.58"/>
    </edge>
    <edge id=":24_0" function="internal">
        <lane id=":24_0_0" index="0" disallow="pedestrian tram rail_urban rail rail_electric ship" speed="36.11" length="2.33" width="3.50" shape="-0.72,-423.04 -3.06,-423.06"/>
        <lane id=":24_0_1" index="1" disallow="pedestrian tram rail_urban rail rail_electric ship" speed="36.11" length="2.33" width="3.50" shape="-0.69,-426.54 -3.02,-426.56"/>
    </edge>
    <edge id=":27_0" function="internal">
        <lane id=":27_0_0" index="0" disallow="pedestrian tram rail_urban rail rail_electric ship" speed="36.11" length="2.43" width="3.50" shape="7.64,-430.78 7.46,-430.80 7.30,-430.82 7.15,-430.84 7.02,-430.86 6.90,-430.87 6.79,-430.89 6.68,-430.90 6.58,-430.91 6.48,-430.92 6.39,-430.92 6.29,-430.93 6.19,-430.94 6.09,-430.94 5.98,-430.95 5.85,-430.95 5.72,-430.96 5.57,-430.96 5.41,-430.97 5.23,-430.98"/>
        <lane id=":27_0_1" index="1" disallow="pedestrian tram rail_urban rail rail_electric ship" speed="36.11" length="2.43" width="3.50" shape="7.82,-434.28 7.64,-434.30 7.48,-434.32 7.33,-434.34 7.19,-434.36 7.07,-434.37 6.96,-434.39 6.85,-434.40 6.75,-434.41 6.66,-434.41 6.56,-434.42 6.46,-434.43 6.36,-434.43 6.25,-434.44 6.14,-434.44 6.02,-434.45 5.88,-434.45 5.73,-434.46 5.57,-434.47 5.39,-434.47"/>
    </edge>
    <edge id=":28_0" function="internal">
        <lane id=":28_0_0" index="0" disallow="pedestrian tram rail_urban rail rail_electric ship" speed="36.11" length="2.45" width="3.50" shape="-16.61,-389.80 -16.39,-392.25"/>
        <lane id=":28_0_1" index="1" disallow="pedestrian tram rail_urban rail rail_electric ship" speed="36.11" length="2.45" width="3.50" shape="-13.13,-389.47 -12.91,-391.91"/>
        <lane id=":28_0_2" index="2" disallow="pedestrian tram rail_urban rail rail_electric ship" speed="36.11" length="2.45" width="3.50" shape="-9.64,-389.15 -9.42,-391.58"/>
    </edge>
    <edge id=":29_0" function="internal">
        <lane id=":29_0_0" index="0" disallow="pedestrian tram rail_urban rail rail_electric ship" speed="36.11" length="0.98" width="3.50" shape="-16.37,-392.45 -16.31,-393.40"/>
        <lane id=":29_0_1" index="1" disallow="pedestrian tram rail_urban rail rail_electric ship" speed="36.11" length="0.98" width="3.50" shape="-12.89,-392.11 -12.82,-393.09"/>
        <lane id=":29_0_2" index="2" disallow="pedestrian tram rail_urban rail rail_electric ship" speed="36.11" length="0.98" width="3.50" shape="-9.40,-391.78 -9.34,-392.78"/>
    </edge>
    <edge id=":3_0" function="internal">
        <lane id=":3_0_0" index="0" disallow="pedestrian tram rail_urban rail rail_electric ship" speed="36.11" length="0.95" width="3.50" shape="-53.75,-421.96 -52.81,-421.91"/>
        <lane id=":3_0_1" index="1" disallow="pedestrian tram rail_urban rail rail_electric ship" speed="36.11" length="0.95" width="3.50" shape="-53.96,-418.46 -53.01,-418.42"/>
        <lane id=":3_0_2" index="2" disallow="pedestrian tram rail_urban rail rail_electric ship" speed="36.11" length="0.95" width="3.50" shape="-54.17,-414.97 -53.22,-414.92"/>
        <lane id=":3_0_3" index="3" disallow="pedestrian tram rail_urban rail rail_electric ship" speed="36.11" length="0.95" width="3.50" shape="-54.38,-411.48 -53.42,-411.43"/>
        <lane id=":3_0_4" index="4" disallow="pedestrian tram rail_urban rail rail_electric ship" speed="36.11" length="0.95" width="3.50" shape="-54.59,-407.98 -53.63,-407.93"/>
    </edge>
    <edge id=":36_0" function="internal">
        <lane id=":36_0_0" index="0" disallow="pedestrian tram rail_urban rail rail_electric ship" speed="3.36" length="3.15" width="3.50" shape="-40.66,-429.21 -40.83,-429.22 -41.03,-429.23 -41.26,-429.23 -41.50,-429.24 -41.76,-429.25 -42.02,-429.26 -42.28,-429.27 -42.54,-429.28 -42.79,-429.29 -43.03,-429.30 -43.25,-429.31 -43.44,-429.31 -43.61,-429.32 -43.74,-429.32 -43.83,-429.33 -43.87,-429.33 -43.86,-429.33 -43.80,-429.33 -43.67,-429.32"/>
        <lane id=":36_0_1" index="1" disallow="pedestrian tram rail_urban rail rail_electric ship" speed="3.25" length="3.15" width="3.50" shape="-40.54,-432.71 -43.55,-432.81"/>
        <lane id=":36_0_2" index="2" disallow="pedestrian tram rail_urban rail rail_electric ship" speed="3.25" length="3.15" width="3.50" shape="-40.41,-436.21 -43.43,-436.31"/>
    </edge>
    <edge id=":37_0" function="internal">
        <lane id=":37_0_0" index="0" disallow="pedestrian tram rail_urban rail rail_electric ship" speed="36.11" length="0.98" width="3.50" shape="-48.75,-421.70 -47.75,-421.64"/>
        <lane id=":37_0_1" index="1" disallow="pedestrian tram rail_urban rail rail_electric ship" speed="36.11" length="0.98" width="3.50" shape="-48.90,-418.21 -47.91,-418.14"/>
        <lane id=":37_0_2" index="2" disallow="pedestrian tram rail_urban rail rail_electric ship" speed="36.11" length="0.98" width="3.50" shape="-49.04,-414.71 -48.07,-414.65"/>
        <lane id=":37_0_3" index="3" disallow="pedestrian tram rail_urban rail rail_electric ship" speed="36.11" length="0.98" width="3.50" shape="-49.19,-411.21 -48.22,-411.15"/>
        <lane id=":37_0_4" index="4" disallow="pedestrian tram rail_urban rail rail_electric ship" speed="36.11" length="0.98" width="3.50" shape="-49.34,-407.72 -48.38,-407.65"/>
    </edge>
    <edge id=":38_0" function="internal">
        <lane id=":38_0_0" index="0" disallow="pedestrian tram rail_urban rail rail_electric ship" speed="36.11" length="2.44" width="3.50" shape="7.17,-423.06 4.73,-422.99"/>
        <lane id=":38_0_1" index="1" disallow="pedestrian tram rail_urban rail rail_electric ship" speed="36.11" length="2.44" width="3.50" shape="7.17,-426.56 4.74,-426.49"/>
    </edge>
    <edge id=":39_0" function="internal">
        <lane id=":39_0_0" index="0" disallow="pedestrian tram rail_urban rail rail_electric ship" speed="36.11" length="0.93" width="3.50" shape="4.53,-422.99 3.59,-423.00"/>
        <lane id=":39_0_1" index="1" disallow="pedestrian tram rail_urban rail rail_electric ship" speed="36.11" length="0.93" width="3.50" shape="4.54,-426.49 3.62,-426.50"/>
    </edge>
    <edge id=":4_0" function="internal">
        <lane id=":4_0_0" index="0" disallow="pedestrian tram rail_urban rail rail_electric ship" speed="36.11" length="2.48" width="3.50" shape="-51.41,-421.83 -48.95,-421.71"/>
        <lane id=":4_0_1" index="1" disallow="pedestrian tram rail_urban rail rail_electric ship" speed="36.11" length="2.48" width="3.50" shape="-51.57,-418.34 -49.10,-418.21"/>
        <lane id=":4_0_2" index="2" disallow="pedestrian tram rail_urban rail rail_electric ship" speed="36.11" length="2.48" width="3.50" shape="-51.73,-414.84 -49.24,-414.72"/>
        <lane id=":4_0_3" index="3" disallow="pedestrian tram rail_urban rail rail_electric ship" speed="36.11" length="2.48" width="3.50" shape="-51.88,-411.34 -49.39,-411.22"/>
        <lane id=":4_0_4" index="4" disallow="pedestrian tram rail_urban rail rail_electric ship" speed="36.11" length="2.48" width="3.50" shape="-52.04,-407.85 -49.54,-407.72"/>
    </edge>
    <edge id=":42_0" function="internal">
        <lane id=":42_0_0" index="0" disallow="pedestrian tram rail_urban rail rail_electric ship" speed="36.11" length="3.01" width="3.50" shape="-29.54,-428.81 -32.55,-428.92"/>
        <lane id=":42_0_1" index="1" disallow="pedestrian tram rail_urban rail rail_electric ship" speed="36.11" length="3.01" width="3.50" shape="-29.41,-432.31 -32.42,-432.42"/>
        <lane id=":42_0_2" index="2" disallow="pedestrian tram rail_urban rail rail_electric ship" speed="36.11" length="3.01" width="3.50" shape="-29.28,-435.80 -32.28,-435.91"/>
    </edge>
    <edge id=":43_0" function="internal">
        <lane id=":43_0_0" index="0" disallow="pedestrian tram rail_urban rail rail_electric ship" speed="36.11" length="3.00" width="3.50" shape="-21.83,-394.14 -22.02,-391.15"/>
        <lane id=":43_0_1" index="1" disallow="pedestrian tram rail_urban rail rail_electric ship" speed="36.11" length="3.00" width="3.50" shape="-25.32,-394.37 -25.51,-391.37"/>
    </edge>
    <edge id=":44_0" function="internal">
        <lane id=":44_0_0" index="0" disallow="pedestrian tram rail_urban rail rail_electric ship" speed="36.11" length="3.00" width="3.50" shape="-22.62,-381.77 -22.81,-378.77"/>
        <lane id=":44_0_1" index="1" disallow="pedestrian tram rail_urban rail rail_electric ship" speed="36.11" length="3.00" width="3.50" shape="-26.11,-381.99 -26.30,-378.99"/>
    </edge>
    <edge id=":46_0" function="internal">
        <lane id=":46_0_0" index="0" disallow="pedestrian tram rail_urban rail rail_electric ship" speed="36.11" length="3.07" width="3.50" shape="0.97,-416.63 4.02,-416.40"/>
        <lane id=":46_0_1" index="1" disallow="pedestrian tram rail_urban rail rail_electric ship" speed="36.11" length="3.07" width="3.50" shape="0.69,-413.14 3.75,-412.91"/>
        <lane id=":46_0_2" index="2" disallow="pedestrian tram rail_urban rail rail_electric ship" speed="36.11" length="3.07" width="3.50" shape="0.41,-409.65 3.48,-409.43"/>
        <lane id=":46_0_3" index="3" disallow="pedestrian tram rail_urban rail rail_electric ship" speed="36.11" length="3.07" width="3.50" shape="0.13,-406.16 3.21,-405.94"/>
    </edge>
    <edge id=":47_0" function="internal">
        <lane id=":47_0_0" index="0" disallow="pedestrian tram rail_urban rail rail_electric ship" speed="36.11" length="0.93" width="3.50" shape="5.03,-430.99 4.07,-431.09"/>
        <lane id=":47_0_1" index="1" disallow="pedestrian tram rail_urban rail rail_electric ship" speed="36.11" length="0.93" width="3.50" shape="5.19,-434.48 4.29,-434.58"/>
    </edge>
    <edge id=":48_0" function="internal">
        <lane id=":48_0_0" index="0" disallow="pedestrian tram rail_urban rail rail_electric ship" speed="36.11" length="3.02" width="3.50" shape="-1.79,-431.62 -4.78,-431.96"/>
        <lane id=":48_0_1" index="1" disallow="pedestrian tram rail_urban rail rail_electric ship" speed="36.11" length="3.02" width="3.50" shape="-1.37,-435.09 -4.38,-435.43"/>
    </edge>
    <edge id=":5_0" function="internal">
        <lane id=":5_0_0" index="0" disallow="pedestrian tram rail_urban rail rail_electric ship" speed="36.11" length="3.11" width="3.50" shape="-52.44,-426.26 -55.51,-426.46"/>
        <lane id=":5_0_1" index="1" disallow="pedestrian tram rail_urban rail rail_electric ship" speed="36.11" length="3.11" width="3.50" shape="-52.17,-429.74 -55.26,-429.95"/>
        <lane id=":5_0_2" index="2" disallow="pedestrian tram rail_urban rail rail_electric ship" speed="36.11" length="3.11" width="3.50" shape="-51.89,-433.24 -55.01,-433.44"/>
        <lane id=":5_0_3" index="3" disallow="pedestrian tram rail_urban rail rail_electric ship" speed="36.11" length="3.11" width="3.50" shape="-51.62,-436.73 -54.75,-436.94"/>
    </edge>
    <edge id=":55_0" function="internal">
        <lane id=":55_0_0" index="0" disallow="pedestrian tram rail_urban rail rail_electric ship" speed="36.11" length="8.10" width="3.49" shape="-43.91,-429.19 -44.19,-429.16 -46.15,-428.58 -50.38,-426.77 -51.87,-426.40 -52.18,-426.39"/>
        <lane id=":55_0_1" index="1" disallow="pedestrian tram rail_urban rail rail_electric ship" speed="36.11" length="8.10" width="3.50" shape="-43.90,-429.35 -51.92,-429.74"/>
        <lane id=":55_0_2" index="2" disallow="pedestrian tram rail_urban rail rail_electric ship" speed="36.11" length="8.10" width="3.50" shape="-43.78,-432.84 -51.64,-433.23"/>
        <lane id=":55_0_3" index="3" disallow="pedestrian tram rail_urban rail rail_electric ship" speed="36.11" length="8.10" width="3.50" shape="-43.66,-436.34 -51.37,-436.72"/>
    </edge>
    <edge id=":56_0" function="internal">
        <lane id=":56_0_0" index="0" disallow="pedestrian tram rail_urban rail rail_electric ship" speed="36.11" length="26.30" width="3.50" shape="35.39,-423.27 32.90,-423.69 28.47,-424.05 23.48,-424.10 17.44,-423.79 16.93,-423.75 14.94,-423.59 9.17,-423.19"/>
        <lane id=":56_0_1" index="1" disallow="pedestrian tram rail_urban rail rail_electric ship" speed="36.11" length="27.27" width="3.50" shape="36.11,-426.69 33.32,-427.16 28.64,-427.54 23.42,-427.59 17.17,-427.28 16.65,-427.24 14.66,-427.08 8.93,-426.68"/>
    </edge>
    <edge id=":56_2" function="internal">
        <lane id=":56_2_0" index="0" disallow="pedestrian tram rail_urban rail rail_electric ship" speed="36.11" length="28.42" width="3.50" shape="36.83,-430.09 36.56,-430.13 35.26,-430.08 33.42,-429.72 26.77,-427.56 24.45,-427.14 22.57,-427.12 20.80,-427.41 20.27,-427.56 20.17,-427.60 20.07,-427.63 19.97,-427.66 19.87,-427.70 13.99,-429.45 13.45,-429.59 13.34,-429.61 13.24,-429.64 13.13,-429.67 9.25,-430.55"/>
        <lane id=":56_2_1" index="1" disallow="pedestrian tram rail_urban rail rail_electric ship" speed="36.11" length="28.42" width="3.50" shape="37.55,-433.50 36.85,-433.58 35.31,-433.50 33.29,-433.09 26.94,-430.96 24.92,-430.56 23.38,-430.51 21.85,-430.75 21.35,-430.89 21.25,-430.93 21.15,-430.96 21.05,-430.99 20.95,-431.03 14.88,-432.83 14.33,-432.97 14.23,-433.00 14.13,-433.03 14.03,-433.05 10.05,-433.94"/>
    </edge>
    <edge id=":57_0" function="internal">
        <lane id=":57_0_0" index="0" disallow="pedestrian tram rail_urban rail rail_electric ship" speed="5.34" length="7.74" width="3.50" shape="-20.28,-415.61 -19.09,-417.51 -19.12,-417.43 -19.15,-417.35 -19.18,-417.26 -19.21,-417.18 -19.24,-417.09 -19.26,-417.01 -19.28,-416.92 -19.29,-416.83 -19.31,-416.74 -19.32,-416.65 -19.32,-416.56 -19.33,-416.47 -19.32,-416.38 -19.32,-416.29 -19.30,-416.20 -19.29,-416.11 -19.27,-416.01 -19.24,-415.92 -19.21,-415.84 -19.17,-415.75 -19.13,-415.66 -19.09,-415.58 -19.04,-415.50 -18.98,-415.42 -18.92,-415.35 -18.86,-415.28 -18.79,-415.21 -18.72,-415.14 -18.65,-415.08 -18.57,-415.02 -18.49,-414.97 -18.41,-414.92 -18.33,-414.87 -18.25,-414.83 -18.16,-414.79 -18.07,-414.75 -17.98,-414.72 -17.90,-414.69 -17.81,-414.66 -17.71,-414.63 -17.62,-414.61 -17.53,-414.59 -17.44,-414.57 -17.35,-414.55 -17.25,-414.53 -17.16,-414.52 -17.07,-414.51 -15.94,-414.43"/>
    </edge>
    <edge id=":57_1" function="internal">
        <lane id=":57_1_0" index="0" disallow="pedestrian tram rail_urban rail rail_electric ship" speed="20.06" length="16.36" width="3.50" shape="-20.28,-415.61 -19.48,-416.55 -20.11,-413.63 -20.77,-408.54 -21.34,-401.55"/>
        <lane id=":57_1_1" index="1" disallow="pedestrian tram rail_urban rail rail_electric ship" speed="21.36" length="16.82" width="3.49" shape="-23.26,-417.32 -22.75,-417.74 -23.49,-414.55 -24.22,-409.14 -24.83,-401.75"/>
    </edge>
    <edge id=":57_3" function="internal">
        <lane id=":57_3_0" index="0" disallow="pedestrian tram rail_urban rail rail_electric ship" speed="36.11" length="12.84" width="3.50" shape="-28.23,-419.07 -27.32,-418.65 -22.38,-416.02 -20.02,-415.08 -18.04,-414.61 -15.94,-414.43"/>
        <lane id=":57_3_1" index="1" disallow="pedestrian tram rail_urban rail rail_electric ship" speed="36.11" length="12.84" width="3.50" shape="-28.39,-416.48 -23.93,-415.58 -19.52,-414.76 -15.94,-414.43"/>
        <lane id=":57_3_2" index="2" disallow="pedestrian tram rail_urban rail rail_electric ship" speed="36.11" length="12.84" width="3.50" shape="-28.61,-412.97 -24.36,-412.11 -19.82,-411.27 -16.17,-410.93"/>
    </edge>
    <edge id=":57_6" function="internal">
        <lane id=":57_6_0" index="0" disallow="pedestrian tram rail_urban rail rail_electric ship" speed="7.39" length="11.87" width="3.50" shape="-28.84,-409.47 -27.44,-409.07 -25.65,-408.31 -24.47,-407.58 -23.36,-406.65 -22.40,-405.46 -21.73,-404.08 -21.40,-402.61 -21.37,-401.55"/>
        <lane id=":57_6_1" index="1" disallow="pedestrian tram rail_urban rail rail_electric ship" speed="5.61" length="6.36" width="3.49" shape="-29.06,-405.91 -28.86,-405.84 -28.62,-405.76 -28.38,-405.67 -28.14,-405.57 -27.91,-405.47 -27.67,-405.37 -27.45,-405.25 -27.22,-405.13 -27.00,-405.00 -26.79,-404.86 -26.58,-404.72 -26.38,-404.57 -26.18,-404.41 -25.99,-404.24 -25.81,-404.06 -25.64,-403.88 -25.49,-403.68 -25.34,-403.47 -25.22,-403.25 -25.10,-403.02 -25.01,-402.78 -24.93,-402.54 -24.88,-402.29 -24.85,-402.03 -24.84,-401.75"/>
    </edge>
    <edge id=":58_0" function="internal">
        <lane id=":58_0_0" index="0" disallow="pedestrian tram rail_urban rail rail_electric ship" speed="12.08" length="21.56" width="3.50" shape="-3.26,-423.06 -7.91,-423.00 -10.42,-422.71 -12.85,-422.16 -14.68,-421.49 -15.91,-420.84 -17.02,-420.06 -17.99,-419.12 -20.17,-415.78"/>
        <lane id=":58_0_1" index="1" disallow="pedestrian tram rail_urban rail rail_electric ship" speed="12.96" length="21.56" width="3.49" shape="-3.22,-426.56 -8.43,-426.47 -11.42,-426.09 -14.34,-425.36 -16.58,-424.47 -18.15,-423.57 -19.58,-422.48 -20.83,-421.17 -23.16,-417.50"/>
    </edge>
    <edge id=":58_2" function="internal">
        <lane id=":58_2_0" index="0" disallow="pedestrian tram rail_urban rail rail_electric ship" speed="17.67" length="16.81" width="3.50" shape="-3.22,-426.56 -9.96,-426.78 -13.54,-427.20 -15.55,-427.66 -16.98,-428.24 -19.38,-429.78"/>
    </edge>
    <edge id=":58_3" function="internal">
        <lane id=":58_3_0" index="0" disallow="pedestrian tram rail_urban rail rail_electric ship" speed="7.74" length="17.98" width="3.50" shape="-15.74,-414.41 -16.40,-414.50 -16.31,-414.53 -16.21,-414.56 -16.12,-414.59 -16.02,-414.61 -15.93,-414.63 -15.83,-414.64 -15.74,-414.65 -15.64,-414.66 -15.55,-414.66 -15.46,-414.67 -15.36,-414.67 -15.27,-414.67 -15.18,-414.67 -15.09,-414.67 -15.00,-414.67 -14.91,-414.67 -14.82,-414.67 -14.73,-414.68 -14.64,-414.68 -14.56,-414.68 -14.47,-414.69 -14.39,-414.69 -14.31,-414.70 -14.23,-414.72 -14.15,-414.73 -14.08,-414.75 -14.01,-414.77 -13.94,-414.80 -13.87,-414.83 -13.81,-414.86 -13.75,-414.89 -13.70,-414.93 -13.64,-414.98 -13.60,-415.03 -13.55,-415.08 -13.51,-415.14 -13.47,-415.20 -13.44,-415.26 -13.42,-415.33 -13.39,-415.40 -13.37,-415.48 -13.36,-415.57 -13.35,-415.65 -13.34,-415.74 -13.34,-415.84 -13.34,-415.94 -13.35,-416.05 -13.37,-416.16 -13.37,-416.16 -13.37,-416.17 -13.37,-416.17 -13.37,-416.18 -13.37,-416.19 -13.37,-416.20 -13.37,-416.21 -13.37,-416.22 -13.38,-416.22 -13.38,-416.23 -13.38,-416.24 -13.38,-416.25 -13.38,-416.26 -13.38,-416.27 -13.38,-416.27 -13.38,-416.28 -13.38,-416.29 -13.39,-416.30 -13.39,-416.31 -13.39,-416.32 -13.39,-416.33 -13.39,-416.33 -13.39,-416.34 -13.39,-416.35 -13.39,-416.36 -13.40,-416.37 -13.40,-416.38 -13.40,-416.38 -13.40,-416.39 -13.40,-416.40 -13.40,-416.41 -13.40,-416.42 -13.40,-416.43 -13.41,-416.43 -13.41,-416.44 -13.41,-416.45 -13.41,-416.46 -13.41,-416.47 -13.41,-416.48 -13.41,-416.48 -13.41,-416.49 -13.41,-416.50 -13.42,-416.51 -13.42,-416.52 -13.42,-416.53 -13.42,-416.53 -13.42,-416.54 -13.42,-416.55 -13.42,-416.56 -13.42,-416.57 -13.42,-416.57 -13.59,-416.71 -13.73,-416.86 -13.85,-417.03 -13.95,-417.22 -14.03,-417.41 -14.10,-417.61 -14.15,-417.83 -14.19,-418.04 -14.22,-418.27 -14.25,-418.50 -14.27,-418.73 -14.28,-418.96 -14.30,-419.19 -14.32,-419.42 -14.34,-419.64 -14.36,-419.86 -14.39,-420.07 -14.43,-420.27 -14.49,-420.45 -14.55,-420.62 -14.64,-420.77 -14.74,-420.90 -14.85,-421.00 -14.98,-421.08 -15.13,-421.14 -15.29,-421.16 -15.47,-421.16 -15.65,-421.13 -15.84,-421.08 -16.03,-421.00 -16.22,-420.90 -16.42,-420.79 -16.61,-420.65 -16.80,-420.51 -16.99,-420.35 -17.17,-420.18 -17.35,-420.00 -17.52,-419.82 -17.69,-419.64 -17.85,-419.45 -18.01,-419.26 -18.15,-419.07 -18.29,-418.89 -18.42,-418.70 -18.54,-418.52 -18.65,-418.35 -18.74,-418.18 -18.82,-418.02 -20.17,-415.78"/>
    </edge>
    <edge id=":58_4" function="internal">
        <lane id=":58_4_0" index="0" disallow="pedestrian tram rail_urban rail rail_electric ship" speed="6.94" length="18.64" width="3.50" shape="-15.74,-414.41 -16.40,-414.50 -16.31,-414.53 -16.21,-414.56 -16.12,-414.59 -16.02,-414.61 -15.93,-414.63 -15.83,-414.64 -15.74,-414.65 -15.64,-414.66 -15.55,-414.66 -15.46,-414.67 -15.36,-414.67 -15.27,-414.67 -15.18,-414.67 -15.09,-414.67 -15.00,-414.67 -14.91,-414.67 -14.82,-414.67 -14.73,-414.68 -14.64,-414.68 -14.56,-414.68 -14.47,-414.69 -14.39,-414.69 -14.31,-414.70 -14.23,-414.72 -14.15,-414.73 -14.08,-414.75 -14.01,-414.77 -13.94,-414.80 -13.87,-414.83 -13.81,-414.86 -13.75,-414.89 -13.70,-414.93 -13.64,-414.98 -13.60,-415.03 -13.55,-415.08 -13.51,-415.14 -13.47,-415.20 -13.44,-415.26 -13.42,-415.33 -13.39,-415.40 -13.37,-415.48 -13.36,-415.57 -13.35,-415.65 -13.34,-415.74 -13.34,-415.84 -13.34,-415.94 -13.35,-416.05 -13.37,-416.16 -13.37,-416.16 -13.37,-416.17 -13.37,-416.17 -13.37,-416.18 -13.37,-416.19 -13.37,-416.20 -13.37,-416.21 -13.37,-416.22 -13.38,-416.22 -13.38,-416.23 -13.38,-416.24 -13.38,-416.25 -13.38,-416.26 -13.38,-416.27 -13.38,-416.27 -13.38,-416.28 -13.38,-416.29 -13.39,-416.30 -13.39,-416.31 -13.39,-416.32 -13.39,-416.33 -13.39,-416.33 -13.39,-416.34 -13.39,-416.35 -13.39,-416.36 -13.40,-416.37 -13.40,-416.38 -13.40,-416.38 -13.40,-416.39 -13.40,-416.40 -13.40,-416.41 -13.40,-416.42 -13.40,-416.43 -13.41,-416.43 -13.41,-416.44 -13.41,-416.45 -13.41,-416.46 -13.41,-416.47 -13.41,-416.48 -13.41,-416.48 -13.41,-416.49 -13.41,-416.50 -13.42,-416.51 -13.42,-416.52 -13.42,-416.53 -13.42,-416.53 -13.42,-416.54 -13.42,-416.55 -13.42,-416.56 -13.42,-416.57 -13.42,-416.57 -13.79,-418.36 -14.41,-420.12 -15.30,-421.75 -16.45,-423.22 -17.86,-424.54 -21.27,-426.84"/>
    </edge>
    <edge id=":58_5" function="internal">
        <lane id=":58_5_0" index="0" disallow="pedestrian tram rail_urban rail rail_electric ship" speed="36.11" length="13.33" width="3.50" shape="-15.74,-414.41 -13.98,-414.48 -10.99,-414.88 -4.12,-416.36 -2.54,-416.53"/>
        <lane id=":58_5_1" index="1" disallow="pedestrian tram rail_urban rail rail_electric ship" speed="36.11" length="13.33" width="3.50" shape="-15.74,-414.41 -7.93,-413.80 -2.58,-413.39"/>
        <lane id=":58_5_2" index="2" disallow="pedestrian tram rail_urban rail rail_electric ship" speed="36.11" length="13.33" width="3.50" shape="-15.97,-410.92 -8.19,-410.31 -2.62,-409.88"/>
    </edge>
    <edge id=":58_8" function="internal">
        <lane id=":58_8_0" index="0" disallow="pedestrian tram rail_urban rail rail_electric ship" speed="4.77" length="7.81" width="3.50" shape="-15.58,-401.65 -15.27,-403.81 -13.98,-409.29"/>
    </edge>
    <edge id=":58_9" function="internal">
        <lane id=":58_9_0" index="0" disallow="pedestrian tram rail_urban rail rail_electric ship" speed="14.16" length="30.51" width="3.50" shape="-15.58,-401.65 -15.27,-403.81 -13.56,-411.03 -13.26,-413.32 -13.26,-415.17 -13.37,-416.16 -13.38,-416.26 -13.39,-416.36 -13.41,-416.46 -13.42,-416.56 -13.79,-418.36 -14.41,-420.12 -15.30,-421.75 -16.45,-423.22 -17.86,-424.54 -21.27,-426.84"/>
        <lane id=":58_9_1" index="1" disallow="pedestrian tram rail_urban rail rail_electric ship" speed="15.03" length="30.51" width="3.50" shape="-12.10,-401.38 -11.82,-403.35 -10.08,-410.93 -9.77,-413.51 -9.78,-415.58 -9.90,-416.59 -9.91,-416.69 -9.92,-416.79 -9.94,-416.89 -9.95,-416.99 -9.97,-417.09 -10.47,-419.47 -11.30,-421.72 -12.47,-423.82 -13.97,-425.69 -15.73,-427.32 -19.38,-429.78"/>
    </edge>
    <edge id=":58_11" function="internal">
        <lane id=":58_11_0" index="0" disallow="pedestrian tram rail_urban rail rail_electric ship" speed="7.91" length="13.83" width="3.50" shape="-12.08,-401.38 -11.93,-402.40 -11.28,-404.36 -10.59,-405.64 -9.67,-406.80 -8.56,-407.77 -7.34,-408.52 -6.00,-409.07 -4.05,-409.54 -2.62,-409.67"/>
        <lane id=":58_11_1" index="1" disallow="pedestrian tram rail_urban rail rail_electric ship" speed="6.34" length="8.49" width="3.50" shape="-8.61,-401.11 -8.59,-401.25 -8.53,-401.50 -8.47,-401.74 -8.41,-401.98 -8.33,-402.22 -8.24,-402.46 -8.15,-402.69 -8.04,-402.92 -7.93,-403.14 -7.80,-403.36 -7.67,-403.57 -7.52,-403.78 -7.37,-403.98 -7.20,-404.17 -7.03,-404.35 -6.85,-404.52 -6.66,-404.69 -6.46,-404.84 -6.26,-404.99 -6.04,-405.13 -5.83,-405.25 -5.61,-405.37 -5.38,-405.48 -5.15,-405.58 -4.91,-405.67 -4.68,-405.75 -4.44,-405.83 -4.20,-405.90 -3.95,-405.96 -3.71,-406.01 -3.46,-406.06 -3.21,-406.10 -2.96,-406.13 -2.66,-406.16"/>
    </edge>